<?xml version="1.0" encoding="UTF-8"?>

<!-- generated on Tue 11 May 19:36:33 2021 by Eclipse SUMO netedit Version 1.8.0
<configuration xmlns:xsi="http://www.w3.org/2001/XMLSchema-instance" xsi:noNamespaceSchemaLocation="http://sumo.dlr.de/xsd/netconvertConfiguration.xsd">

    <output>
        <output-file value="/Users/harrycooper/diss/individual_project/marl_scalability/scenarios/loop_10_lane/map.net.xml"/>
    </output>

    <processing>
        <offset.disable-normalization value="true"/>
    </processing>

    <junctions>
        <no-turnarounds value="true"/>
    </junctions>

    <report>
        <aggregate-warnings value="5"/>
    </report>

</configuration>
-->

<net version="1.6" junctionCornerDetail="5" limitTurnSpeed="5.50" xmlns:xsi="http://www.w3.org/2001/XMLSchema-instance" xsi:noNamespaceSchemaLocation="http://sumo.dlr.de/xsd/net_file.xsd">

    <location netOffset="0.00,0.00" convBoundary="14.69,-55.71,156.02,82.87" origBoundary="10000000000.00,10000000000.00,-10000000000.00,-10000000000.00" projParameter="!"/>

    <edge id=":gneJ10_0" function="internal">
        <lane id=":gneJ10_0_0" index="0" disallow="tram rail_urban rail rail_electric rail_fast ship" speed="16.00" length="0.30" shape="-0.67,54.71 -0.86,54.37"/>
        <lane id=":gneJ10_0_1" index="1" disallow="tram rail_urban rail rail_electric rail_fast ship" speed="16.00" length="0.30" shape="1.99,52.94 1.81,52.62"/>
        <lane id=":gneJ10_0_2" index="2" disallow="tram rail_urban rail rail_electric rail_fast ship" speed="16.00" length="0.30" shape="4.66,51.16 4.49,50.86"/>
        <lane id=":gneJ10_0_3" index="3" disallow="tram rail_urban rail rail_electric rail_fast ship" speed="16.00" length="0.30" shape="7.32,49.39 7.16,49.11"/>
        <lane id=":gneJ10_0_4" index="4" disallow="tram rail_urban rail rail_electric rail_fast ship" speed="16.00" length="0.30" shape="9.99,47.62 9.94,47.54 9.91,47.49 9.89,47.43 9.84,47.35"/>
        <lane id=":gneJ10_0_5" index="5" disallow="tram rail_urban rail rail_electric rail_fast ship" speed="16.00" length="0.30" shape="12.65,45.85 12.61,45.78 12.58,45.72 12.56,45.67 12.52,45.60"/>
        <lane id=":gneJ10_0_6" index="6" disallow="tram rail_urban rail rail_electric rail_fast ship" speed="16.00" length="0.30" shape="15.32,44.08 15.28,44.01 15.25,43.96 15.23,43.91 15.19,43.84"/>
        <lane id=":gneJ10_0_7" index="7" disallow="tram rail_urban rail rail_electric rail_fast ship" speed="16.00" length="0.30" shape="17.98,42.31 17.95,42.25 17.92,42.20 17.90,42.15 17.87,42.08"/>
        <lane id=":gneJ10_0_8" index="8" disallow="tram rail_urban rail rail_electric rail_fast ship" speed="16.00" length="0.30" shape="20.65,40.54 20.61,40.48 20.60,40.43 20.58,40.39 20.54,40.33"/>
        <lane id=":gneJ10_0_9" index="9" disallow="tram rail_urban rail rail_electric rail_fast ship" speed="16.00" length="0.30" shape="23.31,38.77 23.28,38.71 23.27,38.67 23.25,38.63 23.22,38.57"/>
    </edge>
    <edge id=":gneJ11_0" function="internal">
        <lane id=":gneJ11_0_0" index="0" disallow="tram rail_urban rail rail_electric rail_fast ship" speed="16.00" length="1.16" shape="2.14,-31.69 2.44,-32.05 2.63,-32.31 2.81,-32.58 3.13,-32.92"/>
        <lane id=":gneJ11_0_1" index="1" disallow="tram rail_urban rail rail_electric rail_fast ship" speed="16.00" length="1.16" shape="4.44,-29.47 4.73,-29.81 4.90,-30.06 5.07,-30.31 5.37,-30.64"/>
        <lane id=":gneJ11_0_2" index="2" disallow="tram rail_urban rail rail_electric rail_fast ship" speed="16.00" length="1.16" shape="6.75,-27.25 7.02,-27.57 7.17,-27.81 7.33,-28.04 7.60,-28.35"/>
        <lane id=":gneJ11_0_3" index="3" disallow="tram rail_urban rail rail_electric rail_fast ship" speed="16.00" length="1.16" shape="9.05,-25.03 9.30,-25.33 9.44,-25.55 9.59,-25.78 9.84,-26.06"/>
        <lane id=":gneJ11_0_4" index="4" disallow="tram rail_urban rail rail_electric rail_fast ship" speed="16.00" length="1.16" shape="11.36,-22.81 11.59,-23.09 11.72,-23.30 11.85,-23.51 12.08,-23.78"/>
        <lane id=":gneJ11_0_5" index="5" disallow="tram rail_urban rail rail_electric rail_fast ship" speed="16.00" length="1.16" shape="13.67,-20.60 13.87,-20.85 13.99,-21.05 14.11,-21.24 14.32,-21.49"/>
        <lane id=":gneJ11_0_6" index="6" disallow="tram rail_urban rail rail_electric rail_fast ship" speed="16.00" length="1.16" shape="15.97,-18.38 16.16,-18.61 16.26,-18.79 16.36,-18.98 16.56,-19.20"/>
        <lane id=":gneJ11_0_7" index="7" disallow="tram rail_urban rail rail_electric rail_fast ship" speed="16.00" length="1.16" shape="18.28,-16.16 18.45,-16.37 18.53,-16.54 18.62,-16.71 18.80,-16.92"/>
        <lane id=":gneJ11_0_8" index="8" disallow="tram rail_urban rail rail_electric rail_fast ship" speed="16.00" length="1.16" shape="20.58,-13.94 20.73,-14.13 20.81,-14.29 20.88,-14.44 21.04,-14.63"/>
        <lane id=":gneJ11_0_9" index="9" disallow="tram rail_urban rail rail_electric rail_fast ship" speed="16.00" length="1.16" shape="22.89,-11.72 23.02,-11.89 23.08,-12.03 23.14,-12.18 23.28,-12.34"/>
    </edge>
    <edge id=":gneJ12_0" function="internal">
        <lane id=":gneJ12_0_0" index="0" disallow="tram rail_urban rail rail_electric rail_fast ship" speed="16.00" length="0.57" shape="29.43,-58.67 29.68,-58.93"/>
        <lane id=":gneJ12_0_1" index="1" disallow="tram rail_urban rail rail_electric rail_fast ship" speed="16.00" length="0.57" shape="31.66,-56.38 31.95,-56.67"/>
        <lane id=":gneJ12_0_2" index="2" disallow="tram rail_urban rail rail_electric rail_fast ship" speed="16.00" length="0.57" shape="33.90,-54.10 34.23,-54.42"/>
        <lane id=":gneJ12_0_3" index="3" disallow="tram rail_urban rail rail_electric rail_fast ship" speed="16.00" length="0.57" shape="36.14,-51.81 36.50,-52.16"/>
        <lane id=":gneJ12_0_4" index="4" disallow="tram rail_urban rail rail_electric rail_fast ship" speed="16.00" length="0.57" shape="38.38,-49.52 38.77,-49.91"/>
        <lane id=":gneJ12_0_5" index="5" disallow="tram rail_urban rail rail_electric rail_fast ship" speed="16.00" length="0.57" shape="40.62,-47.24 41.04,-47.66"/>
        <lane id=":gneJ12_0_6" index="6" disallow="tram rail_urban rail rail_electric rail_fast ship" speed="16.00" length="0.57" shape="42.86,-44.95 43.31,-45.40"/>
        <lane id=":gneJ12_0_7" index="7" disallow="tram rail_urban rail rail_electric rail_fast ship" speed="16.00" length="0.57" shape="45.10,-42.67 45.58,-43.15"/>
        <lane id=":gneJ12_0_8" index="8" disallow="tram rail_urban rail rail_electric rail_fast ship" speed="16.00" length="0.57" shape="47.34,-40.38 47.86,-40.90"/>
        <lane id=":gneJ12_0_9" index="9" disallow="tram rail_urban rail rail_electric rail_fast ship" speed="16.00" length="0.57" shape="49.57,-38.09 50.13,-38.64"/>
    </edge>
    <edge id=":gneJ13_0" function="internal">
        <lane id=":gneJ13_0_0" index="0" disallow="tram rail_urban rail rail_electric rail_fast ship" speed="16.00" length="0.78" shape="141.04,-58.59 141.76,-57.79"/>
        <lane id=":gneJ13_0_1" index="1" disallow="tram rail_urban rail rail_electric rail_fast ship" speed="16.00" length="0.78" shape="138.68,-56.43 139.35,-55.68"/>
        <lane id=":gneJ13_0_2" index="2" disallow="tram rail_urban rail rail_electric rail_fast ship" speed="16.00" length="0.78" shape="136.32,-54.27 136.94,-53.57"/>
        <lane id=":gneJ13_0_3" index="3" disallow="tram rail_urban rail rail_electric rail_fast ship" speed="16.00" length="0.78" shape="133.95,-52.12 134.54,-51.46"/>
        <lane id=":gneJ13_0_4" index="4" disallow="tram rail_urban rail rail_electric rail_fast ship" speed="16.00" length="0.78" shape="131.59,-49.96 132.13,-49.35"/>
        <lane id=":gneJ13_0_5" index="5" disallow="tram rail_urban rail rail_electric rail_fast ship" speed="16.00" length="0.78" shape="129.23,-47.80 129.73,-47.24"/>
        <lane id=":gneJ13_0_6" index="6" disallow="tram rail_urban rail rail_electric rail_fast ship" speed="16.00" length="0.78" shape="126.86,-45.64 127.32,-45.13"/>
        <lane id=":gneJ13_0_7" index="7" disallow="tram rail_urban rail rail_electric rail_fast ship" speed="16.00" length="0.78" shape="124.50,-43.49 124.91,-43.02"/>
        <lane id=":gneJ13_0_8" index="8" disallow="tram rail_urban rail rail_electric rail_fast ship" speed="16.00" length="0.78" shape="122.14,-41.33 122.51,-40.91"/>
        <lane id=":gneJ13_0_9" index="9" disallow="tram rail_urban rail rail_electric rail_fast ship" speed="16.00" length="0.78" shape="119.77,-39.17 120.10,-38.80"/>
    </edge>
    <edge id=":gneJ14_0" function="internal">
        <lane id=":gneJ14_0_0" index="0" disallow="tram rail_urban rail rail_electric rail_fast ship" speed="16.00" length="1.73" shape="165.08,-30.50 166.69,-28.76"/>
        <lane id=":gneJ14_0_1" index="1" disallow="tram rail_urban rail rail_electric rail_fast ship" speed="16.00" length="1.73" shape="162.63,-28.44 164.15,-26.81"/>
        <lane id=":gneJ14_0_2" index="2" disallow="tram rail_urban rail rail_electric rail_fast ship" speed="16.00" length="1.73" shape="160.18,-26.38 161.61,-24.87"/>
        <lane id=":gneJ14_0_3" index="3" disallow="tram rail_urban rail rail_electric rail_fast ship" speed="16.00" length="1.73" shape="157.73,-24.32 159.07,-22.92"/>
        <lane id=":gneJ14_0_4" index="4" disallow="tram rail_urban rail rail_electric rail_fast ship" speed="16.00" length="1.73" shape="155.27,-22.27 156.53,-20.98"/>
        <lane id=":gneJ14_0_5" index="5" disallow="tram rail_urban rail rail_electric rail_fast ship" speed="16.00" length="1.73" shape="152.82,-20.21 153.99,-19.04"/>
        <lane id=":gneJ14_0_6" index="6" disallow="tram rail_urban rail rail_electric rail_fast ship" speed="16.00" length="1.73" shape="150.37,-18.15 150.68,-17.83 150.92,-17.63 151.15,-17.43 151.44,-17.09"/>
        <lane id=":gneJ14_0_7" index="7" disallow="tram rail_urban rail rail_electric rail_fast ship" speed="16.00" length="1.73" shape="147.92,-16.09 148.20,-15.80 148.42,-15.63 148.64,-15.45 148.90,-15.15"/>
        <lane id=":gneJ14_0_8" index="8" disallow="tram rail_urban rail rail_electric rail_fast ship" speed="16.00" length="1.73" shape="145.47,-14.04 145.72,-13.78 145.92,-13.63 146.12,-13.47 146.36,-13.20"/>
        <lane id=":gneJ14_0_9" index="9" disallow="tram rail_urban rail rail_electric rail_fast ship" speed="16.00" length="1.73" shape="143.02,-11.98 143.24,-11.75 143.43,-11.62 143.60,-11.49 143.82,-11.26"/>
    </edge>
    <edge id=":gneJ15_0" function="internal">
        <lane id=":gneJ15_0_0" index="0" disallow="tram rail_urban rail rail_electric rail_fast ship" speed="16.00" length="1.12" shape="163.82,64.91 163.73,64.98"/>
        <lane id=":gneJ15_0_1" index="1" disallow="tram rail_urban rail rail_electric rail_fast ship" speed="16.00" length="1.12" shape="161.97,62.29 161.71,62.50"/>
        <lane id=":gneJ15_0_2" index="2" disallow="tram rail_urban rail rail_electric rail_fast ship" speed="16.00" length="1.12" shape="160.10,59.65 159.69,60.02"/>
        <lane id=":gneJ15_0_3" index="3" disallow="tram rail_urban rail rail_electric rail_fast ship" speed="16.00" length="1.12" shape="158.24,57.01 157.66,57.54"/>
        <lane id=":gneJ15_0_4" index="4" disallow="tram rail_urban rail rail_electric rail_fast ship" speed="16.00" length="1.12" shape="156.37,54.37 155.64,55.06"/>
        <lane id=":gneJ15_0_5" index="5" disallow="tram rail_urban rail rail_electric rail_fast ship" speed="16.00" length="1.12" shape="154.51,51.73 153.62,52.58"/>
        <lane id=":gneJ15_0_6" index="6" disallow="tram rail_urban rail rail_electric rail_fast ship" speed="16.00" length="1.12" shape="152.64,49.09 151.59,50.10"/>
        <lane id=":gneJ15_0_7" index="7" disallow="tram rail_urban rail rail_electric rail_fast ship" speed="16.00" length="1.12" shape="150.78,46.45 149.57,47.62"/>
        <lane id=":gneJ15_0_8" index="8" disallow="tram rail_urban rail rail_electric rail_fast ship" speed="16.00" length="1.12" shape="148.91,43.81 147.55,45.14"/>
        <lane id=":gneJ15_0_9" index="9" disallow="tram rail_urban rail rail_electric rail_fast ship" speed="16.00" length="1.12" shape="147.04,41.17 145.52,42.66"/>
    </edge>
    <edge id=":gneJ8_0" function="internal">
        <lane id=":gneJ8_0_0" index="0" disallow="tram rail_urban rail rail_electric rail_fast ship" speed="16.00" length="0.36" shape="128.13,93.93 127.90,94.08"/>
        <lane id=":gneJ8_0_1" index="1" disallow="tram rail_urban rail rail_electric rail_fast ship" speed="16.00" length="0.36" shape="126.18,91.40 125.93,91.56"/>
        <lane id=":gneJ8_0_2" index="2" disallow="tram rail_urban rail rail_electric rail_fast ship" speed="16.00" length="0.36" shape="124.22,88.87 123.96,89.04"/>
        <lane id=":gneJ8_0_3" index="3" disallow="tram rail_urban rail rail_electric rail_fast ship" speed="16.00" length="0.36" shape="122.26,86.33 121.99,86.52"/>
        <lane id=":gneJ8_0_4" index="4" disallow="tram rail_urban rail rail_electric rail_fast ship" speed="16.00" length="0.36" shape="120.30,83.80 120.02,84.00"/>
        <lane id=":gneJ8_0_5" index="5" disallow="tram rail_urban rail rail_electric rail_fast ship" speed="16.00" length="0.36" shape="118.35,81.27 118.04,81.48"/>
        <lane id=":gneJ8_0_6" index="6" disallow="tram rail_urban rail rail_electric rail_fast ship" speed="16.00" length="0.36" shape="116.39,78.74 116.07,78.96"/>
        <lane id=":gneJ8_0_7" index="7" disallow="tram rail_urban rail rail_electric rail_fast ship" speed="16.00" length="0.36" shape="114.43,76.21 114.10,76.44"/>
        <lane id=":gneJ8_0_8" index="8" disallow="tram rail_urban rail rail_electric rail_fast ship" speed="16.00" length="0.36" shape="112.48,73.68 112.13,73.92"/>
        <lane id=":gneJ8_0_9" index="9" disallow="tram rail_urban rail rail_electric rail_fast ship" speed="16.00" length="0.36" shape="110.52,71.14 110.15,71.40"/>
    </edge>
    <edge id=":gneJ9_0" function="internal">
        <lane id=":gneJ9_0_0" index="0" disallow="tram rail_urban rail rail_electric rail_fast ship" speed="16.00" length="1.73" shape="30.24,96.10 29.46,95.51 28.96,95.08 28.48,94.61 27.79,93.92"/>
        <lane id=":gneJ9_0_1" index="1" disallow="tram rail_urban rail rail_electric rail_fast ship" speed="16.00" length="1.73" shape="32.22,93.59 31.53,93.06 31.08,92.67 30.65,92.26 30.03,91.64"/>
        <lane id=":gneJ9_0_2" index="2" disallow="tram rail_urban rail rail_electric rail_fast ship" speed="16.00" length="1.73" shape="34.21,91.08 33.60,90.61 33.20,90.27 32.82,89.90 32.27,89.36"/>
        <lane id=":gneJ9_0_3" index="3" disallow="tram rail_urban rail rail_electric rail_fast ship" speed="16.00" length="1.73" shape="36.20,88.57 35.67,88.17 35.32,87.87 34.99,87.55 34.52,87.08"/>
        <lane id=":gneJ9_0_4" index="4" disallow="tram rail_urban rail rail_electric rail_fast ship" speed="16.00" length="1.73" shape="38.18,86.06 37.73,85.72 37.44,85.46 37.16,85.19 36.76,84.80"/>
        <lane id=":gneJ9_0_5" index="5" disallow="tram rail_urban rail rail_electric rail_fast ship" speed="16.00" length="1.73" shape="40.17,83.55 39.80,83.27 39.56,83.06 39.33,82.84 39.01,82.51"/>
        <lane id=":gneJ9_0_6" index="6" disallow="tram rail_urban rail rail_electric rail_fast ship" speed="16.00" length="1.73" shape="42.15,81.04 41.87,80.82 41.68,80.66 41.50,80.49 41.25,80.23"/>
        <lane id=":gneJ9_0_7" index="7" disallow="tram rail_urban rail rail_electric rail_fast ship" speed="16.00" length="1.73" shape="44.14,78.52 43.93,78.37 43.80,78.26 43.68,78.13 43.49,77.95"/>
        <lane id=":gneJ9_0_8" index="8" disallow="tram rail_urban rail rail_electric rail_fast ship" speed="16.00" length="1.73" shape="46.12,76.01 46.00,75.92 45.92,75.85 45.85,75.78 45.74,75.67"/>
        <lane id=":gneJ9_0_9" index="9" disallow="tram rail_urban rail rail_electric rail_fast ship" speed="16.00" length="1.73" shape="48.11,73.50 48.07,73.47 48.04,73.45 48.02,73.42 47.98,73.39"/>
    </edge>

    <edge id="gneE10" from="gneJ10" to="gneJ11" priority="11" type="highway.secondary" shape="24.84,38.13 22.74,34.93 21.26,32.45 19.94,30.01 18.76,27.60 17.73,25.23 16.85,22.90 16.12,20.60 15.54,18.33 15.11,16.11 14.83,13.91 14.69,11.76 14.71,9.64 14.87,7.56 15.18,5.51 15.65,3.50 16.26,1.52 17.02,-0.42 17.93,-2.32 18.98,-4.19 20.19,-6.02 21.55,-7.82 23.05,-9.58 24.70,-11.30">
        <lane id="gneE10_0" index="0" disallow="tram rail_urban rail rail_electric rail_fast ship" speed="16.00" length="74.62" shape="-0.86,54.37 -3.03,51.07 -5.17,47.48 -7.09,43.93 -8.85,40.35 -10.45,36.67 -11.88,32.88 -13.12,28.97 -14.14,24.99 -14.92,20.92 -15.44,16.82 -15.72,12.61 -15.68,8.33 -15.35,4.12 -14.70,-0.23 -13.71,-4.45 -12.46,-8.51 -10.88,-12.55 -9.06,-16.34 -6.99,-20.04 -4.64,-23.58 -2.17,-26.86 0.51,-30.00 2.14,-31.69"/>
        <lane id="gneE10_1" index="1" disallow="tram rail_urban rail rail_electric rail_fast ship" speed="16.00" length="74.62" shape="1.81,52.62 -0.32,49.37 -2.39,45.90 -4.25,42.47 -5.94,39.01 -7.48,35.46 -8.85,31.83 -10.04,28.09 -11.01,24.29 -11.76,20.42 -12.26,16.51 -12.52,12.52 -12.48,8.47 -12.17,4.48 -11.55,0.37 -10.62,-3.61 -9.44,-7.46 -7.94,-11.27 -6.22,-14.87 -4.25,-18.37 -2.03,-21.73 0.33,-24.85 2.88,-27.85 4.44,-29.47"/>
        <lane id="gneE10_2" index="2" disallow="tram rail_urban rail rail_electric rail_fast ship" speed="16.00" length="74.62" shape="4.49,50.86 2.39,47.67 0.39,44.31 -1.40,41.00 -3.03,37.67 -4.51,34.26 -5.83,30.78 -6.96,27.21 -7.89,23.59 -8.60,19.91 -9.07,16.21 -9.32,12.43 -9.28,8.61 -8.99,4.84 -8.41,0.98 -7.53,-2.77 -6.41,-6.40 -5.01,-9.99 -3.38,-13.39 -1.52,-16.70 0.59,-19.89 2.83,-22.85 5.25,-25.70 6.75,-27.25"/>
        <lane id="gneE10_3" index="3" disallow="tram rail_urban rail rail_electric rail_fast ship" speed="16.00" length="74.62" shape="7.16,49.11 5.11,45.97 3.17,42.73 1.44,39.54 -0.13,36.32 -1.55,33.05 -2.81,29.73 -3.89,26.33 -4.76,22.89 -5.44,19.40 -5.88,15.90 -6.12,12.34 -6.08,8.74 -5.81,5.20 -5.26,1.58 -4.44,-1.94 -3.39,-5.35 -2.07,-8.72 -0.54,-11.91 1.21,-15.03 3.20,-18.04 5.32,-20.85 7.63,-23.55 9.05,-25.03"/>
        <lane id="gneE10_4" index="4" disallow="tram rail_urban rail rail_electric rail_fast ship" speed="16.00" length="74.62" shape="9.84,47.35 7.82,44.27 5.96,41.15 4.29,38.07 2.78,34.98 1.42,31.85 0.22,28.68 -0.81,25.44 -1.64,22.19 -2.28,18.90 -2.70,15.59 -2.92,12.25 -2.88,8.88 -2.63,5.57 -2.12,2.19 -1.35,-1.10 -0.37,-4.29 0.87,-7.44 2.30,-10.44 3.95,-13.36 5.81,-16.19 7.82,-18.84 10.00,-21.40 11.36,-22.81"/>
        <lane id="gneE10_5" index="5" disallow="tram rail_urban rail rail_electric rail_fast ship" speed="16.00" length="74.62" shape="12.52,45.60 10.53,42.57 8.74,39.57 7.14,36.60 5.68,33.64 4.38,30.65 3.24,27.63 2.27,24.56 1.48,21.48 0.88,18.39 0.49,15.29 0.29,12.16 0.32,9.02 0.55,5.93 1.03,2.79 1.74,-0.26 2.66,-3.23 3.80,-6.16 5.14,-8.96 6.68,-11.70 8.43,-14.34 10.32,-16.84 12.37,-19.25 13.67,-20.60"/>
        <lane id="gneE10_6" index="6" disallow="tram rail_urban rail rail_electric rail_fast ship" speed="16.00" length="74.62" shape="15.19,43.84 13.25,40.87 11.52,37.99 9.98,35.14 8.59,32.30 7.35,29.44 6.27,26.58 5.35,23.68 4.61,20.78 4.05,17.88 3.68,14.98 3.49,12.07 3.51,9.16 3.73,6.29 4.17,3.39 4.83,0.57 5.68,-2.18 6.74,-4.89 7.99,-7.49 9.41,-10.03 11.04,-12.49 12.81,-14.83 14.75,-17.10 15.97,-18.38"/>
        <lane id="gneE10_7" index="7" disallow="tram rail_urban rail rail_electric rail_fast ship" speed="16.00" length="74.62" shape="17.87,42.08 15.96,39.18 14.30,36.40 12.83,33.67 11.50,30.96 10.32,28.24 9.29,25.53 8.43,22.80 7.73,20.08 7.21,17.38 6.86,14.68 6.69,11.98 6.71,9.30 6.92,6.65 7.32,4.00 7.92,1.41 8.70,-1.12 9.68,-3.61 10.83,-6.01 12.15,-8.36 13.66,-10.64 15.31,-12.83 17.12,-14.95 18.28,-16.16"/>
        <lane id="gneE10_8" index="8" disallow="tram rail_urban rail rail_electric rail_fast ship" speed="16.00" length="74.62" shape="20.54,40.33 18.67,37.48 17.09,34.82 15.67,32.21 14.40,29.61 13.28,27.04 12.31,24.48 11.50,21.92 10.85,19.38 10.37,16.87 10.05,14.37 9.89,11.89 9.91,9.43 10.10,7.02 10.46,4.60 11.01,2.25 11.73,-0.06 12.61,-2.33 13.67,-4.53 14.88,-6.69 16.27,-8.79 17.81,-10.83 19.49,-12.80 20.58,-13.94"/>
        <lane id="gneE10_9" index="9" disallow="tram rail_urban rail rail_electric rail_fast ship" speed="16.00" length="74.62" shape="23.22,38.57 21.38,35.78 19.87,33.24 18.52,30.74 17.31,28.27 16.25,25.83 15.34,23.43 14.58,21.04 13.98,18.68 13.53,16.36 13.24,14.06 13.09,11.80 13.11,9.57 13.28,7.38 13.61,5.21 14.10,3.08 14.75,0.99 15.55,-1.06 16.51,-3.06 17.61,-5.02 18.88,-6.94 20.30,-8.82 21.86,-10.65 22.89,-11.72"/>
    </edge>
    <edge id="gneE11" from="gneJ11" to="gneJ12" priority="11" type="highway.secondary" shape="23.71,-10.53 50.98,-37.23">
        <lane id="gneE11_0" index="0" disallow="tram rail_urban rail rail_electric rail_fast ship" speed="16.00" length="36.80" shape="3.13,-32.92 29.43,-58.67"/>
        <lane id="gneE11_1" index="1" disallow="tram rail_urban rail rail_electric rail_fast ship" speed="16.00" length="36.80" shape="5.37,-30.64 31.66,-56.38"/>
        <lane id="gneE11_2" index="2" disallow="tram rail_urban rail rail_electric rail_fast ship" speed="16.00" length="36.80" shape="7.60,-28.35 33.90,-54.10"/>
        <lane id="gneE11_3" index="3" disallow="tram rail_urban rail rail_electric rail_fast ship" speed="16.00" length="36.80" shape="9.84,-26.06 36.14,-51.81"/>
        <lane id="gneE11_4" index="4" disallow="tram rail_urban rail rail_electric rail_fast ship" speed="16.00" length="36.80" shape="12.08,-23.78 38.38,-49.52"/>
        <lane id="gneE11_5" index="5" disallow="tram rail_urban rail rail_electric rail_fast ship" speed="16.00" length="36.80" shape="14.32,-21.49 40.62,-47.24"/>
        <lane id="gneE11_6" index="6" disallow="tram rail_urban rail rail_electric rail_fast ship" speed="16.00" length="36.80" shape="16.56,-19.20 42.86,-44.95"/>
        <lane id="gneE11_7" index="7" disallow="tram rail_urban rail rail_electric rail_fast ship" speed="16.00" length="36.80" shape="18.80,-16.92 45.10,-42.67"/>
        <lane id="gneE11_8" index="8" disallow="tram rail_urban rail rail_electric rail_fast ship" speed="16.00" length="36.80" shape="21.04,-14.63 47.34,-40.38"/>
        <lane id="gneE11_9" index="9" disallow="tram rail_urban rail rail_electric rail_fast ship" speed="16.00" length="36.80" shape="23.28,-12.34 49.57,-38.09"/>
    </edge>
    <edge id="gneE12" from="gneJ12" to="gneJ13" priority="11" type="highway.secondary" shape="50.98,-37.23 53.62,-39.89 55.59,-41.52 57.88,-43.46 60.16,-45.25 62.42,-46.90 64.67,-48.41 66.90,-49.78 69.13,-51.00 71.34,-52.09 73.54,-53.03 75.73,-53.83 77.90,-54.49 80.06,-55.01 82.21,-55.38 84.35,-55.62 86.47,-55.71 88.58,-55.66 90.68,-55.47 92.77,-55.14 94.84,-54.66 96.90,-54.05 98.95,-53.29 100.99,-52.39 103.01,-51.35 105.02,-50.17 107.02,-48.84 109.01,-47.38 110.98,-45.77 112.94,-44.02 114.89,-42.13 116.52,-40.36 118.75,-37.92">
        <lane id="gneE12_0" index="0" disallow="tram rail_urban rail rail_electric rail_fast ship" speed="16.00" length="104.40" shape="29.68,-58.93 33.09,-62.36 36.06,-64.82 38.66,-67.02 41.80,-69.48 44.98,-71.81 48.24,-73.99 51.64,-76.08 55.10,-77.98 58.63,-79.72 62.34,-81.31 66.08,-82.67 69.91,-83.84 73.92,-84.80 77.93,-85.49 82.01,-85.95 86.19,-86.13 90.31,-86.03 94.42,-85.66 98.58,-85.00 102.60,-84.07 106.51,-82.91 110.38,-81.47 114.09,-79.84 117.67,-77.99 121.14,-75.96 124.44,-73.77 127.63,-71.42 130.73,-68.89 133.65,-66.28 136.67,-63.36 138.93,-60.90 141.04,-58.59"/>
        <lane id="gneE12_1" index="1" disallow="tram rail_urban rail rail_electric rail_fast ship" speed="16.00" length="104.40" shape="31.95,-56.67 35.25,-59.99 38.12,-62.37 40.68,-64.54 43.73,-66.93 46.82,-69.19 49.97,-71.30 53.24,-73.31 56.58,-75.14 59.97,-76.81 63.52,-78.33 67.10,-79.64 70.75,-80.75 74.56,-81.66 78.38,-82.32 82.25,-82.76 86.22,-82.92 90.13,-82.83 94.03,-82.48 97.97,-81.86 101.78,-80.97 105.50,-79.87 109.18,-78.51 112.72,-76.95 116.13,-75.19 119.45,-73.24 122.60,-71.14 125.67,-68.89 128.65,-66.46 131.47,-63.94 134.38,-61.12 136.58,-58.73 138.68,-56.43"/>
        <lane id="gneE12_2" index="2" disallow="tram rail_urban rail rail_electric rail_fast ship" speed="16.00" length="104.40" shape="34.23,-54.42 37.41,-57.63 40.17,-59.91 42.71,-62.06 45.67,-64.38 48.65,-66.56 51.70,-68.61 54.85,-70.55 58.06,-72.30 61.31,-73.90 64.70,-75.35 68.11,-76.60 71.59,-77.66 75.21,-78.53 78.83,-79.15 82.50,-79.56 86.25,-79.72 89.95,-79.63 93.64,-79.30 97.36,-78.71 100.96,-77.88 104.49,-76.83 107.97,-75.54 111.34,-74.06 114.59,-72.38 117.75,-70.53 120.77,-68.52 123.71,-66.36 126.57,-64.02 129.29,-61.60 132.08,-58.89 134.22,-56.57 136.32,-54.27"/>
        <lane id="gneE12_3" index="3" disallow="tram rail_urban rail rail_electric rail_fast ship" speed="16.00" length="104.40" shape="36.50,-52.16 39.57,-55.26 42.23,-57.46 44.73,-59.58 47.60,-61.83 50.49,-63.94 53.43,-65.91 56.46,-67.78 59.53,-69.46 62.65,-70.99 65.88,-72.38 69.13,-73.56 72.43,-74.57 75.86,-75.39 79.28,-75.98 82.75,-76.37 86.28,-76.52 89.76,-76.44 93.24,-76.12 96.75,-75.57 100.15,-74.78 103.48,-73.80 106.77,-72.57 109.96,-71.17 113.04,-69.58 116.05,-67.81 118.94,-65.89 121.75,-63.83 124.49,-61.59 127.11,-59.25 129.79,-56.65 131.86,-54.41 133.95,-52.12"/>
        <lane id="gneE12_4" index="4" disallow="tram rail_urban rail rail_electric rail_fast ship" speed="16.00" length="104.40" shape="38.77,-49.91 41.73,-52.90 44.29,-55.01 46.75,-57.10 49.53,-59.28 52.32,-61.32 55.16,-63.22 58.06,-65.01 61.01,-66.62 63.98,-68.09 67.06,-69.40 70.15,-70.53 73.28,-71.48 76.50,-72.26 79.73,-72.81 82.99,-73.18 86.31,-73.32 89.58,-73.24 92.85,-72.95 96.13,-72.43 99.33,-71.69 102.46,-70.76 105.57,-69.61 108.58,-68.28 111.50,-66.77 114.36,-65.10 117.10,-63.27 119.79,-61.30 122.42,-59.15 124.93,-56.91 127.50,-54.42 129.50,-52.25 131.59,-49.96"/>
        <lane id="gneE12_5" index="5" disallow="tram rail_urban rail rail_electric rail_fast ship" speed="16.00" length="104.40" shape="41.04,-47.66 43.90,-50.53 46.34,-52.56 48.78,-54.62 51.46,-56.73 54.16,-58.70 56.89,-60.53 59.67,-62.24 62.49,-63.78 65.32,-65.18 68.24,-66.42 71.16,-67.49 74.12,-68.39 77.15,-69.12 80.18,-69.64 83.24,-69.99 86.34,-70.12 89.40,-70.04 92.45,-69.77 95.52,-69.28 98.51,-68.59 101.45,-67.72 104.36,-66.64 107.20,-65.39 109.96,-63.97 112.66,-62.38 115.27,-60.65 117.83,-58.77 120.34,-56.72 122.75,-54.57 125.21,-52.19 127.14,-50.09 129.23,-47.80"/>
        <lane id="gneE12_6" index="6" disallow="tram rail_urban rail rail_electric rail_fast ship" speed="16.00" length="104.40" shape="43.31,-45.40 46.06,-48.17 48.40,-50.10 50.80,-52.14 53.40,-54.18 55.99,-56.08 58.62,-57.84 61.28,-59.47 63.96,-60.94 66.66,-62.27 69.42,-63.45 72.18,-64.46 74.96,-65.30 77.80,-65.99 80.63,-66.47 83.49,-66.79 86.37,-66.92 89.22,-66.85 92.06,-66.59 94.91,-66.14 97.70,-65.49 100.44,-64.68 103.16,-63.67 105.82,-62.50 108.41,-61.17 110.96,-59.67 113.44,-58.02 115.87,-56.24 118.26,-54.29 120.57,-52.22 122.91,-49.95 124.78,-47.93 126.86,-45.64"/>
        <lane id="gneE12_7" index="7" disallow="tram rail_urban rail rail_electric rail_fast ship" speed="16.00" length="104.40" shape="45.58,-43.15 48.22,-45.80 50.45,-47.65 52.82,-49.66 55.33,-51.63 57.83,-53.45 60.35,-55.14 62.88,-56.70 65.44,-58.10 68.00,-59.36 70.59,-60.47 73.19,-61.42 75.80,-62.21 78.44,-62.85 81.08,-63.30 83.73,-63.60 86.40,-63.71 89.04,-63.65 91.67,-63.41 94.30,-63.00 96.88,-62.40 99.43,-61.64 101.96,-60.71 104.44,-59.61 106.87,-58.36 109.26,-56.96 111.60,-55.40 113.91,-53.71 116.18,-51.85 118.39,-49.88 120.62,-47.72 122.42,-45.76 124.50,-43.49"/>
        <lane id="gneE12_8" index="8" disallow="tram rail_urban rail rail_electric rail_fast ship" speed="16.00" length="104.40" shape="47.86,-40.90 50.38,-43.44 52.51,-45.20 54.85,-47.18 57.26,-49.08 59.67,-50.83 62.08,-52.45 64.49,-53.93 66.92,-55.26 69.33,-56.45 71.77,-57.49 74.21,-58.38 76.64,-59.12 79.09,-59.71 81.53,-60.13 83.98,-60.41 86.43,-60.51 88.85,-60.45 91.27,-60.24 93.69,-59.85 96.06,-59.30 98.42,-58.61 100.75,-57.74 103.06,-56.72 105.33,-55.56 107.57,-54.24 109.77,-52.78 111.95,-51.18 114.10,-49.42 116.21,-47.54 118.33,-45.48 120.06,-43.60 122.14,-41.33"/>
        <lane id="gneE12_9" index="9" disallow="tram rail_urban rail rail_electric rail_fast ship" speed="16.00" length="104.40" shape="50.13,-38.64 52.54,-41.07 54.56,-42.75 56.87,-44.70 59.19,-46.53 61.50,-48.21 63.81,-49.76 66.10,-51.16 68.39,-52.42 70.67,-53.54 72.95,-54.52 75.22,-55.35 77.48,-56.03 79.74,-56.58 81.98,-56.96 84.23,-57.22 86.46,-57.31 88.67,-57.26 90.88,-57.06 93.08,-56.71 95.25,-56.21 97.41,-55.57 99.55,-54.77 101.68,-53.83 103.78,-52.75 105.87,-51.53 107.94,-50.15 109.99,-48.65 112.02,-46.99 114.03,-45.19 116.04,-43.25 117.70,-41.44 119.77,-39.17"/>
    </edge>
    <edge id="gneE13" from="gneJ13" to="gneJ14" priority="11" type="highway.secondary" shape="118.75,-37.92 119.44,-37.13 120.41,-36.01 121.62,-34.61 123.03,-32.97 124.61,-31.13 126.31,-29.14 128.11,-27.04 129.96,-24.88 131.83,-22.69 133.67,-20.52 135.46,-18.42 137.16,-16.43 138.73,-14.58 140.13,-12.93 141.32,-11.52 142.27,-10.38 142.95,-9.57">
        <lane id="gneE13_0" index="0" disallow="tram rail_urban rail rail_electric rail_fast ship" speed="16.00" length="35.59" shape="141.76,-57.79 142.37,-57.09 143.40,-55.90 144.65,-54.46 146.09,-52.78 147.70,-50.90 149.41,-48.91 151.20,-46.82 153.06,-44.64 154.98,-42.39 156.83,-40.21 158.59,-38.15 160.31,-36.14 161.91,-34.25 163.33,-32.57 164.61,-31.06 165.08,-30.50"/>
        <lane id="gneE13_1" index="1" disallow="tram rail_urban rail rail_electric rail_fast ship" speed="16.00" length="35.59" shape="139.35,-55.68 139.96,-54.99 140.98,-53.81 142.22,-52.37 143.66,-50.70 145.27,-48.82 146.98,-46.82 148.77,-44.74 150.63,-42.56 152.55,-40.32 154.39,-38.14 156.15,-36.08 157.87,-34.06 159.47,-32.18 160.89,-30.50 162.16,-29.01 162.63,-28.44"/>