<?xml version="1.0" encoding="UTF-8"?>

<!-- generated on Thu  6 May 15:04:29 2021 by Eclipse SUMO netedit Version 1.8.0
<configuration xmlns:xsi="http://www.w3.org/2001/XMLSchema-instance" xsi:noNamespaceSchemaLocation="http://sumo.dlr.de/xsd/netconvertConfiguration.xsd">

    <input>
        <sumo-net-file value="/Users/harrycooper/diss/individual_project/marl_scalability/scenarios/loop_4_lane/map.net.xml"/>
    </input>

    <output>
        <output-file value="/Users/harrycooper/diss/individual_project/marl_scalability/scenarios/loop_4_lane/map.net.xml"/>
    </output>

    <processing>
        <geometry.min-radius.fix.railways value="false"/>
        <geometry.max-grade.fix value="false"/>
        <offset.disable-normalization value="true"/>
        <lefthand value="false"/>
    </processing>

    <junctions>
        <no-turnarounds value="true"/>
        <junctions.corner-detail value="5"/>
        <junctions.limit-turn-speed value="5.5"/>
        <rectangular-lane-cut value="false"/>
    </junctions>

    <pedestrian>
        <walkingareas value="false"/>
    </pedestrian>

    <report>
        <aggregate-warnings value="5"/>
    </report>

</configuration>
-->

<net version="1.6" junctionCornerDetail="5" limitTurnSpeed="5.50" xmlns:xsi="http://www.w3.org/2001/XMLSchema-instance" xsi:noNamespaceSchemaLocation="http://sumo.dlr.de/xsd/net_file.xsd">

    <location netOffset="-630882.85,-4856133.12" convBoundary="-0.30,0.00,198.75,86.68" origBoundary="-79.371708,43.846679,-79.369237,43.847436" projParameter="+proj=utm +zone=17 +ellps=WGS84 +datum=WGS84 +units=m +no_defs"/>

    <type id="highway.bridleway" priority="1" numLanes="1" speed="2.78" allow="pedestrian" oneway="1" width="2.00"/>
    <type id="highway.bus_guideway" priority="1" numLanes="1" speed="27.78" allow="bus" oneway="1"/>
    <type id="highway.cycleway" priority="1" numLanes="1" speed="8.33" allow="bicycle" oneway="1" width="1.00"/>
    <type id="highway.footway" priority="1" numLanes="1" speed="2.78" allow="pedestrian" oneway="1" width="2.00"/>
    <type id="highway.ford" priority="1" numLanes="1" speed="2.78" allow="army" oneway="1"/>
    <type id="highway.living_street" priority="2" numLanes="1" speed="2.78" disallow="tram rail_urban rail rail_electric ship" oneway="1"/>
    <type id="highway.motorway" priority="14" numLanes="2" speed="39.44" allow="private emergency authority army vip passenger hov taxi bus coach delivery truck trailer motorcycle evehicle custom1 custom2" oneway="1"/>
    <type id="highway.motorway_link" priority="9" numLanes="1" speed="22.22" allow="private emergency authority army vip passenger hov taxi bus coach delivery truck trailer motorcycle evehicle custom1 custom2" oneway="1"/>
    <type id="highway.path" priority="1" numLanes="1" speed="2.78" allow="pedestrian bicycle" oneway="1" width="2.00"/>
    <type id="highway.pedestrian" priority="1" numLanes="1" speed="2.78" allow="pedestrian" oneway="1" width="2.00"/>
    <type id="highway.primary" priority="12" numLanes="2" speed="27.78" disallow="tram rail_urban rail rail_electric ship" oneway="1"/>
    <type id="highway.primary_link" priority="7" numLanes="1" speed="22.22" disallow="tram rail_urban rail rail_electric ship" oneway="1"/>
    <type id="highway.raceway" priority="15" numLanes="2" speed="83.33" allow="vip" oneway="1"/>
    <type id="highway.residential" priority="3" numLanes="1" speed="13.89" disallow="tram rail_urban rail rail_electric ship" oneway="1"/>
    <type id="highway.secondary" priority="11" numLanes="2" speed="27.78" disallow="tram rail_urban rail rail_electric ship" oneway="1"/>
    <type id="highway.secondary_link" priority="6" numLanes="1" speed="22.22" disallow="tram rail_urban rail rail_electric ship" oneway="1"/>
    <type id="highway.service" priority="1" numLanes="1" speed="5.56" allow="pedestrian delivery bicycle" oneway="1"/>
    <type id="highway.stairs" priority="1" numLanes="1" speed="1.39" allow="pedestrian" oneway="1" width="2.00"/>
    <type id="highway.step" priority="1" numLanes="1" speed="1.39" allow="pedestrian" oneway="1" width="2.00"/>
    <type id="highway.steps" priority="1" numLanes="1" speed="1.39" allow="pedestrian" oneway="1" width="2.00"/>
    <type id="highway.tertiary" priority="10" numLanes="1" speed="22.22" disallow="tram rail_urban rail rail_electric ship" oneway="1"/>
    <type id="highway.tertiary_link" priority="5" numLanes="1" speed="22.22" disallow="tram rail_urban rail rail_electric ship" oneway="1"/>
    <type id="highway.track" priority="1" numLanes="1" speed="5.56" disallow="tram rail_urban rail rail_electric ship" oneway="1"/>
    <type id="highway.trunk" priority="13" numLanes="2" speed="27.78" disallow="pedestrian bicycle tram rail_urban rail rail_electric ship" oneway="1"/>
    <type id="highway.trunk_link" priority="8" numLanes="1" speed="22.22" disallow="pedestrian bicycle tram rail_urban rail rail_electric ship" oneway="1"/>
    <type id="highway.unclassified" priority="4" numLanes="1" speed="13.89" disallow="tram rail_urban rail rail_electric ship" oneway="1"/>
    <type id="highway.unsurfaced" priority="1" numLanes="1" speed="8.33" disallow="tram rail_urban rail rail_electric ship" oneway="1"/>
    <type id="railway.light_rail" priority="19" numLanes="1" speed="27.78" allow="rail_urban" oneway="1"/>
    <type id="railway.preserved" priority="16" numLanes="1" speed="27.78" allow="rail" oneway="1"/>
    <type id="railway.rail" priority="20" numLanes="1" speed="83.33" allow="rail rail_electric" oneway="1"/>
    <type id="railway.subway" priority="18" numLanes="1" speed="27.78" allow="rail_urban" oneway="1"/>
    <type id="railway.tram" priority="17" numLanes="1" speed="13.89" allow="tram" oneway="1"/>

    <edge id=":4370324323_0" function="internal">
        <lane id=":4370324323_0_0" index="0" disallow="tram rail_urban rail rail_electric rail_fast ship" speed="16.67" length="0.31" shape="128.78,14.46 129.17,14.35"/>
        <lane id=":4370324323_0_1" index="1" disallow="tram rail_urban rail rail_electric rail_fast ship" speed="16.67" length="0.31" shape="129.71,17.52 130.04,17.43"/>
        <lane id=":4370324323_0_2" index="2" disallow="tram rail_urban rail rail_electric rail_fast ship" speed="16.67" length="0.31" shape="130.64,20.59 130.90,20.51"/>
        <lane id=":4370324323_0_3" index="3" disallow="tram rail_urban rail rail_electric rail_fast ship" speed="16.67" length="0.31" shape="131.57,23.65 131.77,23.59"/>
    </edge>
    <edge id=":4370324325_0" function="internal">
        <lane id=":4370324325_0_0" index="0" disallow="tram rail_urban rail rail_electric rail_fast ship" speed="16.67" length="0.34" shape="120.06,55.59 119.97,55.60"/>
        <lane id=":4370324325_0_1" index="1" disallow="tram rail_urban rail rail_electric rail_fast ship" speed="16.67" length="0.34" shape="119.80,52.40 119.54,52.43"/>
        <lane id=":4370324325_0_2" index="2" disallow="tram rail_urban rail rail_electric rail_fast ship" speed="16.67" length="0.34" shape="119.54,49.21 119.12,49.26"/>
        <lane id=":4370324325_0_3" index="3" disallow="tram rail_urban rail rail_electric rail_fast ship" speed="16.67" length="0.34" shape="119.29,46.02 118.69,46.09"/>
    </edge>
    <edge id=":gneJ0_0" function="internal">
        <lane id=":gneJ0_0_0" index="0" disallow="tram rail_urban rail rail_electric rail_fast ship" speed="16.67" length="0.10" shape="-3.80,35.32 -3.80,35.32"/>
        <lane id=":gneJ0_0_1" index="1" disallow="tram rail_urban rail rail_electric rail_fast ship" speed="16.67" length="0.10" shape="-0.72,34.43 -0.72,34.43"/>
        <lane id=":gneJ0_0_2" index="2" disallow="tram rail_urban rail rail_electric rail_fast ship" speed="16.67" length="0.10" shape="2.35,33.55 2.35,33.55"/>
        <lane id=":gneJ0_0_3" index="3" disallow="tram rail_urban rail rail_electric rail_fast ship" speed="16.67" length="0.10" shape="5.42,32.66 5.42,32.66"/>
    </edge>
    <edge id=":gneJ1_0" function="internal">
        <lane id=":gneJ1_0_0" index="0" disallow="tram rail_urban rail rail_electric rail_fast ship" speed="16.67" length="0.10" shape="197.66,49.60 197.66,49.60"/>
        <lane id=":gneJ1_0_1" index="1" disallow="tram rail_urban rail rail_electric rail_fast ship" speed="16.67" length="0.10" shape="194.61,48.66 194.61,48.66"/>
        <lane id=":gneJ1_0_2" index="2" disallow="tram rail_urban rail rail_electric rail_fast ship" speed="16.67" length="0.10" shape="191.55,47.72 191.55,47.72"/>
        <lane id=":gneJ1_0_3" index="3" disallow="tram rail_urban rail rail_electric rail_fast ship" speed="16.67" length="0.10" shape="188.49,46.77 188.49,46.77"/>
    </edge>

    <edge id="445633931" from="4370324323" to="gneJ1" priority="11" type="highway.secondary" spreadType="center" shape="130.32,19.01 135.52,17.55 146.37,13.38 156.49,9.36 163.00,7.22 169.63,5.60 176.57,5.20 184.51,6.15 190.71,8.32 195.32,11.87 197.71,16.47 198.75,21.18 198.31,25.22 197.95,29.14 196.94,34.15 194.76,42.74 193.08,48.19">
        <lane id="445633931_0" index="0" disallow="tram rail_urban rail rail_electric rail_fast ship" speed="16.67" length="106.46" shape="129.17,14.35 134.01,12.99 144.62,8.91 154.85,4.85 161.68,2.60 168.92,0.83 176.72,0.38 185.60,1.45 193.03,4.05 199.09,8.71 202.26,14.82 203.61,20.92 203.09,25.70 202.71,29.84 201.62,35.22 199.38,44.04 197.66,49.60"/>
        <lane id="445633931_1" index="1" disallow="tram rail_urban rail rail_electric rail_fast ship" speed="16.67" length="106.46" shape="130.04,17.43 135.02,16.03 145.79,11.89 155.94,7.86 162.56,5.68 169.39,4.01 176.62,3.59 184.87,4.58 191.48,6.90 196.58,10.82 199.23,15.92 200.37,21.09 199.90,25.38 199.54,29.37 198.50,34.51 196.30,43.17 194.61,48.66"/>
        <lane id="445633931_2" index="2" disallow="tram rail_urban rail rail_electric rail_fast ship" speed="16.67" length="106.46" shape="130.90,20.51 136.02,19.07 146.95,14.87 157.04,10.86 163.44,8.76 169.87,7.19 176.52,6.81 184.15,7.72 189.94,9.74 194.06,12.92 196.19,17.02 197.13,21.27 196.72,25.06 196.36,28.91 195.38,33.79 193.22,42.31 191.55,47.72"/>
        <lane id="445633931_3" index="3" disallow="tram rail_urban rail rail_electric rail_fast ship" speed="16.67" length="106.46" shape="131.77,23.59 137.03,22.11 148.12,17.85 158.13,13.87 164.32,11.84 170.34,10.37 176.42,10.02 183.42,10.85 188.39,12.59 191.55,15.03 193.16,18.12 193.89,21.44 193.53,24.74 193.19,28.44 192.26,33.08 190.14,41.44 188.49,46.77"/>
    </edge>
    <edge id="445633931.106" from="gneJ1" to="4370324325" priority="11" type="highway.secondary" spreadType="center" shape="193.08,48.19 191.98,51.74 188.25,62.97 184.52,72.16 182.15,77.19 180.32,79.74 178.24,81.70 175.67,83.40 173.38,84.57 171.46,85.41 169.12,86.23 166.64,86.62 161.89,86.68 159.37,86.10 156.54,84.74 154.38,83.26 152.38,81.15 151.54,78.65 150.99,75.88 151.24,73.41 152.17,70.29 153.62,67.67 154.15,65.56 154.38,61.96 154.08,59.29 152.82,56.69 150.85,54.78 148.33,53.28 145.03,51.96 141.73,51.35 135.39,50.32 130.78,50.21 125.46,50.34 119.50,50.82">
        <lane id="445633931.106_0" index="0" disallow="tram rail_urban rail rail_electric rail_fast ship" speed="16.67" length="126.07" shape="197.66,49.60 196.55,53.20 192.76,64.63 188.92,74.09 186.31,79.63 183.95,82.92 181.23,85.48 178.09,87.55 175.44,88.91 173.22,89.88 170.30,90.90 167.05,91.42 161.37,91.49 157.77,90.66 154.13,88.91 151.25,86.93 148.17,83.68 146.89,79.89 146.14,76.11 146.51,72.47 147.72,68.42 149.12,65.89 149.39,64.82 149.56,62.08 149.40,60.64 148.87,59.55 147.91,58.62 146.20,57.60 143.69,56.59 140.91,56.08 134.95,55.11 130.78,55.01 125.71,55.14 120.06,55.59"/>
        <lane id="445633931.106_1" index="1" disallow="tram rail_urban rail rail_electric rail_fast ship" speed="16.67" length="126.07" shape="194.61,48.66 193.50,52.23 189.75,63.52 185.99,72.80 183.54,78.00 181.53,80.80 179.24,82.96 176.48,84.78 174.07,86.02 172.05,86.90 169.51,87.79 166.78,88.22 161.72,88.28 158.84,87.62 155.74,86.13 153.34,84.48 150.98,81.99 149.99,79.06 149.37,75.96 149.66,73.10 150.69,69.67 152.12,67.08 152.56,65.31 152.77,62.00 152.52,59.74 151.50,57.64 149.87,56.06 147.62,54.72 144.58,53.50 141.46,52.93 135.24,51.92 130.78,51.81 125.54,51.94 119.80,52.40"/>
        <lane id="445633931.106_2" index="2" disallow="tram rail_urban rail rail_electric rail_fast ship" speed="16.67" length="126.07" shape="191.55,47.72 190.46,51.25 186.75,62.42 183.05,71.52 180.76,76.38 179.11,78.68 177.24,80.44 174.86,82.02 172.69,83.12 170.87,83.92 168.73,84.67 166.50,85.02 162.06,85.08 159.90,84.58 157.34,83.35 155.42,82.04 153.78,80.31 153.09,78.24 152.61,75.80 152.82,73.72 153.65,70.91 155.12,68.26 155.74,65.81 155.99,61.92 155.64,58.84 154.14,55.74 151.83,53.50 149.04,51.84 145.48,50.42 142.00,49.77 135.54,48.72 130.78,48.61 125.38,48.74 119.54,49.21"/>
        <lane id="445633931.106_3" index="3" disallow="tram rail_urban rail rail_electric rail_fast ship" speed="16.67" length="126.07" shape="188.49,46.77 187.41,50.28 183.74,61.31 180.12,70.23 177.99,74.75 176.69,76.56 175.25,77.92 173.25,79.25 171.32,80.23 169.70,80.94 167.94,81.56 166.23,81.82 162.41,81.87 160.97,81.54 158.95,80.57 157.51,79.59 156.59,78.62 156.19,77.41 155.84,75.65 155.97,74.35 156.62,72.16 158.12,69.45 158.91,66.30 159.20,61.84 158.76,57.94 156.77,53.83 153.79,50.94 150.46,48.96 146.37,47.33 142.55,46.62 135.83,45.53 130.78,45.41 125.21,45.54 119.29,46.02"/>
    </edge>
    <edge id="445633932" from="4370324325" to="gneJ0" priority="11" type="highway.secondary" spreadType="center" shape="119.50,50.82 114.08,51.55 109.17,52.48 85.57,57.76 72.56,60.40 57.76,62.74 48.37,63.49 39.05,63.24 32.05,62.04 25.09,60.26 19.41,57.40 14.08,54.26 8.75,49.65 4.74,44.26 2.13,38.56 0.81,33.99">
        <lane id="445633932_0" index="0" disallow="tram rail_urban rail rail_electric rail_fast ship" speed="16.67" length="133.10" shape="119.97,55.60 114.85,56.29 110.14,57.18 86.57,62.45 73.41,65.12 58.33,67.51 48.50,68.30 38.58,68.03 31.05,66.74 23.40,64.78 17.11,61.62 11.27,58.17 5.21,52.94 0.59,46.72 -2.38,40.23 -3.80,35.32"/>
        <lane id="445633932_1" index="1" disallow="tram rail_urban rail rail_electric rail_fast ship" speed="16.67" length="133.10" shape="119.54,52.43 114.34,53.13 109.49,54.05 85.90,59.32 72.84,61.97 57.95,64.33 48.41,65.09 38.89,64.84 31.72,63.61 24.53,61.77 18.64,58.81 13.14,55.56 7.57,50.75 3.36,45.08 0.63,39.12 -0.72,34.43"/>
        <lane id="445633932_2" index="2" disallow="tram rail_urban rail rail_electric rail_fast ship" speed="16.67" length="133.10" shape="119.12,49.26 113.82,49.97 108.85,50.91 85.24,56.20 72.28,58.83 57.57,61.15 48.33,61.89 39.21,61.64 32.38,60.47 25.65,58.75 20.18,55.99 15.02,52.96 9.93,48.55 6.12,43.44 3.63,38.00 2.35,33.55"/>
        <lane id="445633932_3" index="3" disallow="tram rail_urban rail rail_electric rail_fast ship" speed="16.67" length="133.10" shape="118.69,46.09 113.31,46.81 108.20,47.78 84.57,53.07 71.71,55.68 57.19,57.97 48.24,58.68 39.52,58.45 33.05,57.34 26.78,55.74 21.71,53.18 16.89,50.35 12.29,46.36 8.89,41.80 6.64,36.89 5.42,32.66"/>
    </edge>
    <edge id="445633932.133" from="gneJ0" to="4370324323" priority="11" type="highway.secondary" spreadType="center" shape="0.81,33.99 0.45,32.73 -0.30,27.39 0.00,21.78 1.42,16.93 3.91,11.55 8.28,6.98 12.47,3.97 17.26,1.75 22.71,0.34 29.36,0.00 35.07,0.86 39.53,1.85 45.01,3.31 49.97,4.77 54.46,6.29 61.13,8.85 67.96,11.56 74.81,14.86 86.19,19.18 99.50,22.42 106.40,22.99 114.29,22.71 122.63,21.34 130.32,19.01">
        <lane id="445633932.133_0" index="0" disallow="tram rail_urban rail rail_electric rail_fast ship" speed="16.67" length="157.40" shape="-3.80,35.32 -4.26,33.73 -5.12,27.60 -4.76,20.97 -3.09,15.24 -0.11,8.81 5.12,3.34 10.04,-0.19 15.64,-2.79 21.98,-4.43 29.60,-4.82 35.95,-3.86 40.67,-2.81 46.31,-1.31 51.42,0.19 56.09,1.77 62.88,4.38 69.89,7.16 76.71,10.45 87.61,14.59 100.27,17.67 106.51,18.18 113.81,17.92 121.54,16.65 128.78,14.46"/>
        <lane id="445633932.133_1" index="1" disallow="tram rail_urban rail rail_electric rail_fast ship" speed="16.67" length="157.40" shape="-0.72,34.43 -1.12,33.06 -1.91,27.46 -1.59,21.51 -0.08,16.37 2.57,10.64 7.23,5.77 11.66,2.58 16.72,0.24 22.47,-1.25 29.44,-1.61 35.36,-0.71 39.91,0.30 45.44,1.77 50.45,3.24 55.00,4.78 61.71,7.36 68.60,10.09 75.44,13.39 86.66,17.65 99.76,20.84 106.44,21.39 114.13,21.11 122.27,19.78 129.71,17.52"/>
        <lane id="445633932.133_2" index="2" disallow="tram rail_urban rail rail_electric rail_fast ship" speed="16.67" length="157.40" shape="2.35,33.55 2.02,32.40 1.31,27.32 1.59,22.05 2.92,17.49 5.25,12.46 9.33,8.19 13.28,5.36 17.80,3.26 22.95,1.93 29.28,1.61 34.78,2.43 39.15,3.40 44.58,4.85 49.49,6.30 53.92,7.80 60.55,10.34 67.32,13.03 74.18,16.33 85.72,20.71 99.24,24.00 106.36,24.59 114.45,24.31 122.99,22.90 130.64,20.59"/>
        <lane id="445633932.133_3" index="3" disallow="tram rail_urban rail rail_electric rail_fast ship" speed="16.67" length="157.40" shape="5.42,32.66 5.16,31.73 4.52,27.18 4.76,22.59 5.93,18.62 7.93,14.29 11.44,10.62 14.90,8.13 18.88,6.29 23.44,5.11 29.12,4.82 34.19,5.58 38.39,6.51 43.71,7.93 48.52,9.35 52.83,10.81 59.38,13.32 66.03,15.96 72.91,19.27 84.77,23.77 98.73,27.17 106.29,27.80 114.77,27.50 123.72,26.03 131.57,23.65"/>
    </edge>

    <junction id="4370324323" type="priority" x="130.32" y="19.01" incLanes="445633932.133_0 445633932.133_1 445633932.133_2 445633932.133_3" intLanes=":4370324323_0_0 :4370324323_0_1 :4370324323_0_2 :4370324323_0_3" shape="132.20,25.13 128.74,12.81 128.32,12.93 132.03,25.18">
        <request index="0" response="0000" foes="0000" cont="0"/>
        <request index="1" response="0000" foes="0000" cont="0"/>
        <request index="2" response="0000" foes="0000" cont="0"/>
        <request index="3" response="0000" foes="0000" cont="0"/>
    </junction>
    <junction id="4370324325" type="priority" x="119.50" y="50.82" incLanes="445633931.106_0 445633931.106_1 445633931.106_2 445633931.106_3" intLanes=":4370324325_0_0 :4370324325_0_1 :4370324325_0_2 :4370324325_0_3" shape="120.18,57.19 119.16,44.43 118.48,44.50">
        <request index="0" response="0000" foes="0000" cont="0"/>
        <request index="1" response="0000" foes="0000" cont="0"/>
        <request index="2" response="0000" foes="0000" cont="0"/>
        <request index="3" response="0000" foes="0000" cont="0"/>
    </junction>
    <junction id="gneJ0" type="priority" x="0.81" y="33.99" incLanes="445633932_0 445633932_1 445633932_2 445633932_3" intLanes=":gneJ0_0_0 :gneJ0_0_1 :gneJ0_0_2 :gneJ0_0_3" shape="-5.34,35.76 6.96,32.22 -5.34,35.76">
        <request index="0" response="0000" foes="0000" cont="0"/>
        <request index="1" response="0000" foes="0000" cont="0"/>
        <request index="2" response="0000" foes="0000" cont="0"/>
        <request index="3" response="0000" foes="0000" cont="0"/>
    </junction>
    <junction id="gneJ1" type="priority" x="193.08" y="48.19" incLanes="445633931_0 445633931_1 445633931_2 445633931_3" intLanes=":gneJ1_0_0 :gneJ1_0_1 :gneJ1_0_2 :gneJ1_0_3" shape="199.19,50.08 186.96,46.30 199.19,50.08">
        <request index="0" response="0000" foes="0000" cont="0"/>
        <request index="1" response="0000" foes="0000" cont="0"/>
        <request index="2" response="0000" foes="0000" cont="0"/>
        <request index="3" response="0000" foes="0000" cont="0"/>
    </junction>

    <connection from="445633931" to="445633931.106" fromLane="0" toLane="0" via=":gneJ1_0_0" dir="s" state="M"/>
    <connection from="445633931" to="445633931.106" fromLane="1" toLane="1" via=":gneJ1_0_1" dir="s" state="M"/>
    <connection from="445633931" to="445633931.106" fromLane="2" toLane="2" via=":gneJ1_0_2" dir="s" state="M"/>
    <connection from="445633931" to="445633931.106" fromLane="3" toLane="3" via=":gneJ1_0_3" dir="s" state="M"/>
    <connection from="445633931.106" to="445633932" fromLane="0" toLane="0" via=":4370324325_0_0" dir="s" state="M"/>
    <connection from="445633931.106" to="445633932" fromLane="1" toLane="1" via=":4370324325_0_1" dir="s" state="M"/>
    <connection from="445633931.106" to="445633932" fromLane="2" toLane="2" via=":4370324325_0_2" dir="s" state="M"/>
    <connection from="445633931.106" to="445633932" fromLane="3" toLane="3" via=":4370324325_0_3" dir="s" state="M"/>
    <connection from="445633932" to="445633932.133" fromLane="0" toLane="0" via=":gneJ0_0_0" dir="s" state="M"/>
    <connection from="445633932" to="445633932.133" fromLane="1" toLane="1" via=":gneJ0_0_1" dir="s" state="M"/>
    <connection from="445633932" to="445633932.133" fromLane="2" toLane="2" via=":gneJ0_0_2" dir="s" state="M"/>
    <connection from="445633932" to="445633932.133" fromLane="3" toLane="3" via=":gneJ0_0_3" dir="s" state="M"/>
    <connection from="445633932.133" to="445633931" fromLane="0" toLane="0" via=":4370324323_0_0" dir="s" state="M"/>
    <connection from="445633932.133" to="445633931" fromLane="1" toLane="1" via=":4370324323_0_1" dir="s" state="M"/>
    <connection from="445633932.133" to="445633931" fromLane="2" toLane="2" via=":4370324323_0_2" dir="s" state="M"/>
    <connection from="445633932.133" to="445633931" fromLane="3" toLane="3" via=":4370324323_0_3" dir="s" state="M"/>

    <connection from=":4370324323_0" to="445633931" fromLane="0" toLane="0" dir="s" state="M"/>
    <connection from=":4370324323_0" to="445633931" fromLane="1" toLane="1" dir="s" state="M"/>
    <connection from=":4370324323_0" to="445633931" fromLane="2" toLane="2" dir="s" state="M"/>
    <connection from=":4370324323_0" to="445633931" fromLane="3" toLane="3" dir="s" state="M"/>
    <connection from=":4370324325_0" to="445633932" fromLane="0" toLane="0" dir="s" state="M"/>
    <connection from=":4370324325_0" to="445633932" fromLane="1" toLane="1" dir="s" state="M"/>
    <connection from=":4370324325_0" to="445633932" fromLane="2" toLane="2" dir="s" state="M"/>
    <connection from=":4370324325_0" to="445633932" fromLane="3" toLane="3" dir="s" state="M"/>
    <connection from=":gneJ0_0" to="445633932.133" fromLane="0" toLane="0" dir="s" state="M"/>
    <connection from=":gneJ0_0" to="445633932.133" fromLane="1" toLane="1" dir="s" state="M"/>
    <connection from=":gneJ0_0" to="445633932.133" fromLane="2" toLane="2" dir="s" state="M"/>
    <connection from=":gneJ0_0" to="445633932.133" fromLane="3" toLane="3" dir="s" state="M"/>
    <connection from=":gneJ1_0" to="445633931.106" fromLane="0" toLane="0" dir="s" state="M"/>
    <connection from=":gneJ1_0" to="445633931.106" fromLane="1" toLane="1" dir="s" state="M"/>
    <connection from=":gneJ1_0" to="445633931.106" fromLane="2" toLane="2" dir="s" state="M"/>
    <connection from=":gneJ1_0" to="445633931.106" fromLane="3" toLane="3" dir="s" state="M"/>

</net>
